Version 4
SHEET 1 2992 1812
WIRE 112 144 -64 144
WIRE 464 144 368 144
WIRE 592 144 544 144
WIRE 832 144 592 144
WIRE 944 144 832 144
WIRE 1056 144 944 144
WIRE 1136 144 1056 144
WIRE -64 176 -64 144
WIRE 944 176 944 144
WIRE 1136 176 1136 144
WIRE 1056 240 1056 144
WIRE 832 256 832 144
WIRE -64 288 -64 256
WIRE 240 288 240 240
WIRE 592 288 592 144
WIRE 592 288 240 288
WIRE 944 288 944 256
WIRE 992 288 944 288
WIRE 1136 288 1136 256
WIRE 944 320 944 288
WIRE 832 368 832 336
WIRE 896 368 832 368
WIRE 832 400 832 368
WIRE 832 512 832 480
WIRE 944 512 944 416
WIRE 944 512 832 512
WIRE 992 512 944 512
WIRE 1056 512 1056 336
WIRE 1056 512 992 512
WIRE 1136 512 1136 368
WIRE 1136 512 1056 512
WIRE 848 544 832 544
WIRE 944 544 848 544
WIRE 992 544 992 512
WIRE 992 544 944 544
WIRE 1056 544 992 544
WIRE 1136 544 1056 544
WIRE 944 576 944 544
WIRE 1136 576 1136 544
WIRE 1056 640 1056 544
WIRE 832 656 832 544
WIRE 944 688 944 656
WIRE 992 688 944 688
WIRE 1136 688 1136 656
WIRE 944 720 944 688
WIRE 832 768 832 736
WIRE 896 768 832 768
WIRE 832 800 832 768
WIRE 832 912 832 880
WIRE 944 912 944 816
WIRE 944 912 832 912
WIRE 992 912 944 912
WIRE 1056 912 1056 736
WIRE 1056 912 992 912
WIRE 1136 912 1136 768
WIRE 1136 912 1056 912
WIRE 848 944 832 944
WIRE 944 944 848 944
WIRE 992 944 992 912
WIRE 992 944 944 944
WIRE 1056 944 992 944
WIRE 1136 944 1056 944
WIRE 944 976 944 944
WIRE 1136 976 1136 944
WIRE 1056 1040 1056 944
WIRE 832 1056 832 944
WIRE 944 1088 944 1056
WIRE 992 1088 944 1088
WIRE 1136 1088 1136 1056
WIRE 944 1120 944 1088
WIRE 832 1168 832 1136
WIRE 896 1168 832 1168
WIRE 832 1200 832 1168
WIRE 832 1312 832 1280
WIRE 944 1312 944 1216
WIRE 944 1312 832 1312
WIRE 992 1312 944 1312
WIRE 1056 1312 1056 1136
WIRE 1056 1312 992 1312
WIRE 1136 1312 1136 1168
WIRE 1136 1312 1056 1312
WIRE 848 1344 832 1344
WIRE 944 1344 848 1344
WIRE 992 1344 992 1312
WIRE 992 1344 944 1344
WIRE 1056 1344 992 1344
WIRE 1136 1344 1056 1344
WIRE 944 1376 944 1344
WIRE 1136 1376 1136 1344
WIRE 1056 1440 1056 1344
WIRE 832 1456 832 1344
WIRE 944 1488 944 1456
WIRE 992 1488 944 1488
WIRE 1136 1488 1136 1456
WIRE 944 1520 944 1488
WIRE 832 1568 832 1536
WIRE 896 1568 832 1568
WIRE 832 1600 832 1568
WIRE 832 1712 832 1680
WIRE 944 1712 944 1616
WIRE 944 1712 832 1712
WIRE 992 1712 944 1712
WIRE 1056 1712 1056 1536
WIRE 1056 1712 992 1712
WIRE 1136 1712 1136 1568
WIRE 1136 1712 1056 1712
WIRE 992 1744 992 1712
FLAG 592 144 B0+
FLAG -64 288 0
FLAG 992 1744 0
FLAG 848 544 B1+
FLAG 848 944 B2+
FLAG 848 1344 B3+
SYMBOL PowerProducts\\LT317A 240 144 R0
SYMATTR InstName U1
SYMBOL res 560 128 R90
WINDOW 0 0 56 VBottom 2
WINDOW 3 32 56 VTop 2
SYMATTR InstName R1
SYMATTR Value 1.25
SYMBOL voltage -64 160 R0
WINDOW 123 0 0 Left 2
WINDOW 39 0 0 Left 2
SYMATTR InstName V1
SYMATTR Value 20
SYMBOL res 1120 160 R0
SYMATTR InstName R2
SYMATTR Value .02
SYMBOL TL431 944 368 R0
SYMATTR InstName U2
SYMBOL pnp 992 336 M180
SYMATTR InstName Q1
SYMBOL res 928 160 R0
SYMATTR InstName R4
SYMATTR Value 100
SYMBOL res 816 240 R0
SYMATTR InstName R5
SYMATTR Value 480
SYMBOL res 816 384 R0
SYMATTR InstName R6
SYMATTR Value 1000
SYMBOL voltage 1136 272 R0
WINDOW 123 0 0 Left 2
WINDOW 39 0 0 Left 2
SYMATTR InstName V2
SYMATTR Value PWL file=bat0.txt
SYMBOL res 1120 560 R0
SYMATTR InstName R3
SYMATTR Value .02
SYMBOL res 928 560 R0
SYMATTR InstName R7
SYMATTR Value 100
SYMBOL voltage 1136 672 R0
WINDOW 123 0 0 Left 2
WINDOW 39 0 0 Left 2
SYMATTR InstName V3
SYMATTR Value PWL file=bat1.txt
SYMBOL res 816 640 R0
SYMATTR InstName R8
SYMATTR Value 480
SYMBOL res 816 784 R0
SYMATTR InstName R9
SYMATTR Value 1000
SYMBOL TL431 944 768 R0
SYMATTR InstName U3
SYMBOL pnp 992 736 M180
SYMATTR InstName Q2
SYMBOL res 1120 960 R0
SYMATTR InstName R10
SYMATTR Value .02
SYMBOL res 928 960 R0
SYMATTR InstName R11
SYMATTR Value 100
SYMBOL voltage 1136 1072 R0
WINDOW 123 0 0 Left 2
WINDOW 39 0 0 Left 2
SYMATTR InstName V4
SYMATTR Value PWL file=bat2.txt
SYMBOL res 816 1040 R0
SYMATTR InstName R12
SYMATTR Value 480
SYMBOL res 816 1184 R0
SYMATTR InstName R13
SYMATTR Value 1000
SYMBOL TL431 944 1168 R0
SYMATTR InstName U4
SYMBOL pnp 992 1136 M180
SYMATTR InstName Q3
SYMBOL res 1120 1360 R0
SYMATTR InstName R14
SYMATTR Value .02
SYMBOL res 928 1360 R0
SYMATTR InstName R15
SYMATTR Value 100
SYMBOL voltage 1136 1472 R0
WINDOW 123 0 0 Left 2
WINDOW 39 0 0 Left 2
SYMATTR InstName V5
SYMATTR Value PWL file=bat3.txt
SYMBOL res 816 1440 R0
SYMATTR InstName R16
SYMATTR Value 480
SYMBOL res 816 1584 R0
SYMATTR InstName R17
SYMATTR Value 1000
SYMBOL TL431 944 1568 R0
SYMATTR InstName U5
SYMBOL pnp 992 1536 M180
SYMATTR InstName Q4
TEXT -96 312 Left 2 !.tran 2
